/*--------------------------------*- C++ -*----------------------------------*\
| =========                 |                                                 |
| \\      /  F ield         | OpenFOAM: The Open Source CFD Toolbox           |
|  \\    /   O peration     | Version:  2.2.x                                 |
|   \\  /    A nd           | Web:      www.OpenFOAM.org                      |
|    \\/     M anipulation  |                                                 |
\*---------------------------------------------------------------------------*/
FoamFile
{
    version     2.0;
    format      ascii;
    class       volVectorField;
    location    "0";
    object      U;
    defaultFaces
    {    type empty;
    }
}
// * * * * * * * * * * * * * * * * * * * * * * * * * * * * * * * * * * * * * //

dimensions      [0 1 -1 0 0 0 0];

internalField   uniform (0 0 0);

boundaryField
{
    top
    {
        // Bubble rising in quiescent fluid.

        // Eulerian (inertial) reference frame.
        // type            slip;
        // type            fixedValue;
        // value           uniform (0 0 0);

        // Arbitrary Lagrangian / Eulerian -Relative Reference Frame (RRF
        // Not sure if Neumann is the right BC for ALE-RRF. 
        type            zeroGradient;
    }
    bottom
    {
        // Eulerian (inertial) reference frame.
        // type            fixedValue;
        // value           uniform (0 0 0);
        
        // Arbitrary Lagrangian / Eulerian -Relative Reference Frame (RRF
        type            zeroGradient;
    }

    mantle
    {
        // Eulerian (inertial) reference frame.
        type            slip;
        
        // Arbitrary Lagrangian / Eulerian -Relative Reference Frame (RRF
        //type            zeroGradient;
    }
}


// ************************************************************************* //
