/*--------------------------------*- C++ -*----------------------------------*\
| =========                 |                                                 |
| \\      /  F ield         | OpenFOAM: The Open Source CFD Toolbox           |
|  \\    /   O peration     | Version:  2.2.x                                 |
|   \\  /    A nd           | Web:      www.OpenFOAM.org                      |
|    \\/     M anipulation  |                                                 |
\*---------------------------------------------------------------------------*/
FoamFile
{
    version     2.0;
    format      ascii;
    class       pointScalarField;
    location    "0";
    object      pointSignedDistance;
}
// * * * * * * * * * * * * * * * * * * * * * * * * * * * * * * * * * * * * * //

dimensions      [0 1 0 0 0 0 0];

internalField   uniform 1e+15;  

boundaryField
{
    topAndBottom
    {
        type            zeroGradient;
    }

    left
    {
        type    cyclic;
    }

    right
    {
        type    cyclic;
    }

    front
    {
        type    cyclic;
    }

    back
    {
        type    cyclic;
    }
}


// ************************************************************************* //
