/*--------------------------------*- C++ -*----------------------------------*\
| =========                 |                                                 |
| \\      /  F ield         | OpenFOAM: The Open Source CFD Toolbox           |
|  \\    /   O peration     | Version:  2.1.x                                 |
|   \\  /    A nd           | Web:      www.OpenFOAM.org                      |
|    \\/     M anipulation  |                                                 |
\*---------------------------------------------------------------------------*/
FoamFile
{
    version     2.0;
    format      ascii;
    class       dictionary;
    location    "system";
    object      controlDict;
}
// * * * * * * * * * * * * * * * * * * * * * * * * * * * * * * * * * * * * * //

application     lentReconstruct;

startFrom       startTime;

startTime       0;

stopAt          endTime;

endTime         3;

deltaT          0.01;

writeControl    timeStep;

writeInterval   1;

purgeWrite      0;

writeFormat     ascii;

writePrecision  6;

writeCompression uncompressed;

timeFormat      general;

timePrecision   6;

runTimeModifiable no;

adjustTimeStep yes;

maxAlphaCo 0.5;

maxDeltaT       1;

libs ("libtwoPhaseValidation.so"); 

functions
{
    advectInterface 
    {
        type harmonic;
        baseType deformation;

        period 3;
        phaseShift 0; 

        cellVelocityName U; 
        volFluxName phi; 
    }

}


// ************************************************************************* //
