/*--------------------------------*- C++ -*----------------------------------*\
| =========                 |                                                 |
| \\      /  F ield         | OpenFOAM Extend Project: Open Source CFD        |
|  \\    /   O peration     | Version:  1.6-ext                               |
|   \\  /    A nd           | Web:      www.extend-project.de                 |
|    \\/     M anipulation  |                                                 |
\*---------------------------------------------------------------------------*/
FoamFile
{
    version     2.0;
    format      ascii;
    class       dictionary;
    object      blockMeshDict; }
// * * * * * * * * * * * * * * * * * * * * * * * * * * * * * * * * * * * * * //

#include "./constant/caseSetup"

w $domainWidth;
h $domainHeight;
z #calc "$domainWidth / $N";

convertToMeters 1.00;

vertices
(
    (0    0    0)
    ($w   0    0)
    ($w   $h   0)
    (0    $h   0)
    (0    0    $z)
    ($w   0    $z)
    ($w   $h   $z)
    (0    $h   $z)
);

blocks
(
    hex (0 1 2 3 4 5 6 7) ($N #calc "int($domainHeight/$domainWidth*$N)" 1) simpleGrading (1 1 1)
);

edges
(
);

patches
(
    patch left
    (
        (0 4 7 3)
    )
    patch right
    (
        (2 6 5 1)
    )
    patch bottom
    (
        (1 5 4 0)
    )
    patch top
    (
        (3 7 6 2)
    )
);

mergePatchPairs
(
);

// ************************************************************************* //
