/*--------------------------------*- C++ -*----------------------------------*\
| =========                 |                                                 |
| \\      /  F ield         | OpenFOAM Extend Project: Open Source CFD        |
|  \\    /   O peration     | Version:  1.6-ext                               |
|   \\  /    A nd           | Web:      www.extend-project.de                 |
|    \\/     M anipulation  |                                                 |
\*---------------------------------------------------------------------------*/
FoamFile
{
    version     2.0;
    format      ascii;
    class       dictionary;
    location    "system";
    object      controlDict;
}
// * * * * * * * * * * * * * * * * * * * * * * * * * * * * * * * * * * * * * //

#include "./constant/caseSetup"

application     lentFoam;

startFrom       startTime;

startTime       0;

stopAt          endTime;

endTime         $end_time;

deltaT          $delta_T;

writeControl    timeStep;

writeInterval   20;

purgeWrite      0;

writeFormat     ascii;

writePrecision  6;

writeCompression uncompressed;

timeFormat      general;

timePrecision   6;

runTimeModifiable yes;

adjustTimeStep  no;

maxCo 0.5; 
maxAlphaCo 0.5;

maxDeltaT       0.01;

libs ("libtwoPhaseValidation.so");

functions
{
    volumeConservation
    {
        type                fieldErrors;
        fieldName           alpha.water;
        alphaDroplet        0.0;
    }

    // TODO: the stationaryDroplet function object cannot handle a
    // moving droplet. Derive a specialised version that has this
    // capability --> use front information
}

// * * * * * * * * * * * * * * * * * * * * * * * * * * * * * * * * * * * * * //
