/*--------------------------------*- C++ -*----------------------------------*\
| =========                 |                                                 |
| \\      /  F ield         | OpenFOAM: The Open Source CFD Toolbox           |
|  \\    /   O peration     | Version:  plus                                  |
|   \\  /    A nd           | Web:      www.OpenFOAM.com                      |
|    \\/     M anipulation  |                                                 |
\*---------------------------------------------------------------------------*/
FoamFile
{
    version     2.0;
    format      ascii;
    class       dictionary;
    location    "system";
    object      lentSolution;
}
// * * * * * * * * * * * * * * * * * * * * * * * * * * * * * * * * * * * * * //

#include "./constant/caseSetup"

distanceCalculator
{
    type            optimizedOctree;
    narrowBandWidth 3;
    narrowBandPropagation
    {
        type            naiveNarrowBand;
    }
}

frontReconstructionModel
{
    type            maxNormalAngle;
    value           30;
}

frontReconstructor
{
    type            foamIsoSurface;
    mergeTolerance  1e-06;
    regularization  off;
    normalConsistency
    {
        type            centerNormal;
    }
}

frontSmoother
{
    relaxFactor 0.33;
    nSweeps     3;
    smooth      pointsAndEdges;
}

markerFieldModel
{
    type            tetFillingLevelAlternative;
    cellDistance    signedDistance;
    pointDistance   pointSignedDistance;
    nSmoothingSteps $n_smoothing;
}

frontVelocityCalculator
{
    type            barycentric;
    searchAlgorithm
    {
        type            frontMeshSearch;
    }
}

searchAlgorithm
{
    type            frontMeshSearch;
}

frontMotionSolver
{
    type            Taylor;
    cellToVertexInterpolation $cell_to_vertex;
}

frontSurface
{
    type            circle;
    radius          $radius;
    centre          (#calc "$xCentre + $distortion" #calc "$yCentre - $distortion" 0);
    emptyDirection  (0 0 1);
}

exactCurvatureModel
{
    type            exactCurvature;
    write           on;
    frontSurface
    {
        type    circle;
        radius          $radius;
        centre          (#calc "$xCentre + $distortion" #calc "$yCentre - $distortion" 0);
        emptyDirection  (0 0 1);
    }
}

surfaceTensionForceModel
{
    type            CSF;
    filterField     alpha.water;
    curvatureModel
    {
        type            frontTriangle;
        normalCalculator
        {
            type    parabolaFitting2D;
        }
        //type            constantCurvature;
        //value           -0.5;
    }
}


// ************************************************************************* //
