/*--------------------------------*- C++ -*----------------------------------*\
|    _ _ _ _    |                                                              |
| //         \\ | Creative Fields cfMeshPRO                                  |
| | cfMeshPRO | |                                                              |
| \\ _ _ _ _ // | Version: 0.0.99                                            |
|               | Web: www.c-fields.com e-mail: support@c-fields.com           |
\*---------------------------------------------------------------------------*/
FoamFile
{
version	2;
format	ascii;
class	dictionary;
location	"system";
object	meshDict;
}

// * * * * * * * * * * * * * * * * * * * * * * * * * * * * * * * * * * * * * //

#include "./constant/caseSetup"

surfaceFile	$surfaceFile;

maxCellSize	#calc "$radius*8/$N";

// ************************************************************************* //
