/*--------------------------------*- C++ -*----------------------------------*\
| =========                 |                                                 |
| \\      /  F ield         | OpenFOAM: The Open Source CFD Toolbox           |
|  \\    /   O peration     | Version:  v1806                                 |
|   \\  /    A nd           | Web:      www.OpenFOAM.com                      |
|    \\/     M anipulation  |                                                 |
\*---------------------------------------------------------------------------*/
FoamFile
{
    version     2.0;
    format      ascii;
    class       dictionary;
    object      topoSetDict;
}
// * * * * * * * * * * * * * * * * * * * * * * * * * * * * * * * * * * * * * //

actions
(
    {
        name    interfaceRegionCellCorners;
        type    pointSet;
        action  new;
        source  boxToPoint;
        sourceInfo
        {
            box (-0.01 -0.01 0.0008) (0.016 0.027 0.0024);
        }
    }

    {
        name    interfaceRegion;
        type    cellSet;
        action  new;
        source  pointToCell;
        sourceInfo
        {
            set     interfaceRegionCellCorners;
            option  any;
        }
    }
);

// ************************************************************************* //

